data_image0
_chemical_formula_structural       C4H29
_chemical_formula_sum              "C4 H29"
_cell_length_a       3.615
_cell_length_b       3.615
_cell_length_c       3.615
_cell_angle_alpha    90
_cell_angle_beta     90
_cell_angle_gamma    90

_space_group_name_H-M_alt    "P 1"
_space_group_IT_number       1

loop_
  _space_group_symop_operation_xyz
  'x, y, z'

loop_
  _atom_site_type_symbol
  _atom_site_label
  _atom_site_symmetry_multiplicity
  _atom_site_fract_x
  _atom_site_fract_y
  _atom_site_fract_z
  _atom_site_occupancy
  C   C1        1.0  0.00000  0.00000  0.00000  1.0000
  C   C2        1.0  0.00000  0.50000  0.50000  1.0000
  C   C3        1.0  0.50000  0.00000  0.50000  1.0000
  C   C4        1.0  0.50000  0.50000  0.00000  1.0000
  H   H1        1.0  0.64465  0.57763  0.67460  1.0000
  H   H2        1.0  0.40370  0.38632  0.42918  1.0000
  H   H3        1.0  0.48365  0.48093  0.25354  1.0000
  H   H4        1.0  0.55425  0.45418  0.46452  1.0000
  H   H5        1.0  0.45665  0.51072  0.61319  1.0000
  H   H6        1.0  0.75315  0.35599  0.52858  1.0000
  H   H7        1.0  0.80736  0.68650  0.66451  1.0000
  H   H8        1.0  0.34562  0.67755  0.36218  1.0000
  H   H9        1.0  0.33569  0.38113  0.18357  1.0000
  H   H10       1.0  0.66243  0.76069  0.76498  1.0000
  H   H11       1.0  0.62484  0.42681  0.78475  1.0000
  H   H12       1.0  0.38474  0.18786  0.22842  1.0000
  H   H13       1.0  0.53245  0.18641  0.62194  1.0000
  H   H14       1.0  0.18437  0.37246  0.47878  1.0000
  H   H15       1.0  0.29019  0.52128  0.59169  1.0000
  H   H16       1.0  0.52217  0.76879  0.42438  1.0000
  H   H17       1.0  0.66761  0.67128  0.98539  1.0000
  H   H18       1.0  0.74904  0.47262  0.31992  1.0000
  H   H19       1.0  0.53889  0.76021  0.60567  1.0000
  H   H20       1.0  0.17523  0.24417  0.24722  1.0000
  H   H21       1.0  0.41381  0.51778  0.81239  1.0000
  H   H22       1.0  0.50139  0.18997  0.39196  1.0000
  H   H23       1.0  0.75129  0.56843  0.45804  1.0000
  H   H24       1.0  0.33849  0.22437  0.39266  1.0000
  H   H25       1.0  0.33375  0.69329  0.56063  1.0000
  H   H26       1.0  0.44030  0.31892  0.71417  1.0000
  H   H27       1.0  0.29146  0.50175  0.33083  1.0000
  H   H28       1.0  0.57087  0.36442  0.60498  1.0000
  H   H29       1.0  0.58653  0.60380  0.37383  1.0000
